Version 4
SHEET 1 5240 964
WIRE 1728 -352 1600 -352
WIRE 1840 -352 1728 -352
WIRE 304 -320 176 -320
WIRE 416 -320 304 -320
WIRE 1600 -208 1600 -272
WIRE 1840 -208 1840 -272
WIRE 176 -176 176 -320
WIRE 416 -176 416 -240
WIRE 1840 -80 1840 -128
WIRE 2336 -80 1840 -80
WIRE 416 -48 416 -96
WIRE 912 -48 416 -48
WIRE 1600 -16 1600 -128
WIRE 2240 -16 1600 -16
WIRE 1248 64 1216 64
WIRE 1344 64 1312 64
WIRE 1600 64 1600 -16
WIRE 1840 64 1840 -80
WIRE -176 96 -208 96
WIRE -80 96 -112 96
WIRE 176 96 176 -96
WIRE 416 96 416 -48
WIRE 1696 128 1648 128
WIRE 1952 128 1888 128
WIRE 816 144 816 96
WIRE 1216 144 1216 64
WIRE 1216 144 816 144
WIRE 1248 144 1216 144
WIRE 1344 144 1344 64
WIRE 1344 144 1328 144
WIRE 1392 144 1344 144
WIRE 1552 144 1472 144
WIRE 1792 144 1760 144
WIRE 272 160 224 160
WIRE 528 160 464 160
WIRE -208 176 -208 96
WIRE -208 176 -272 176
WIRE -176 176 -208 176
WIRE -80 176 -80 96
WIRE -80 176 -96 176
WIRE -32 176 -80 176
WIRE 128 176 48 176
WIRE 368 176 336 176
WIRE -272 208 -272 176
WIRE 1568 240 1568 192
WIRE 1680 240 1568 240
WIRE 1808 240 1808 192
WIRE 1920 240 1808 240
WIRE 1984 240 1920 240
WIRE 2240 240 2240 64
WIRE 2336 240 2336 -80
WIRE 2400 240 2336 240
WIRE 144 272 144 224
WIRE 256 272 144 272
WIRE 384 272 384 224
WIRE 384 272 256 272
WIRE 816 272 816 144
WIRE 912 272 912 -48
WIRE 976 272 912 272
WIRE 1680 288 1680 240
WIRE 256 320 256 272
WIRE 1920 336 1920 304
WIRE 1984 336 1984 320
WIRE 1984 336 1920 336
WIRE 2336 336 2336 304
WIRE 2400 336 2400 320
WIRE 2400 336 2336 336
WIRE 1984 352 1984 336
WIRE 2240 352 2240 320
WIRE 2400 352 2400 336
WIRE 912 368 912 336
WIRE 976 368 976 352
WIRE 976 368 912 368
WIRE 816 384 816 352
WIRE 976 384 976 368
WIRE 1456 448 1184 448
WIRE 1760 448 1760 144
WIRE 1760 448 1536 448
WIRE 32 480 -240 480
WIRE 336 480 336 176
WIRE 336 480 112 480
WIRE 1184 480 1184 448
WIRE -240 512 -240 480
FLAG -272 288 0
FLAG 640 -144 0
FLAG 784 -224 0
FLAG 784 -144 -60V
FLAG 640 -224 200V
FLAG -240 512 0
FLAG 256 400 -60V
FLAG 304 -320 200V
FLAG 976 384 0
FLAG 544 -144 0
FLAG 544 -224 150
FLAG 528 80 150
FLAG 272 80 150
FLAG 272 224 0
FLAG 528 224 0
FLAG 816 384 -60V
FLAG 1984 352 0
FLAG 1184 480 0
FLAG 1680 368 -60V
FLAG 1728 -352 200V
FLAG 2400 352 0
FLAG 1952 48 150
FLAG 1696 48 150
FLAG 1696 192 0
FLAG 1952 192 0
FLAG 2240 352 -60V
SYMBOL voltage -272 192 R0
WINDOW 3 -460 14 Left 2
WINDOW 123 0 0 Left 0
WINDOW 39 -177 50 Left 2
SYMATTR Value PULSE(-22 10 0 10ns 10ns 2.5us 5us)
SYMATTR InstName V1
SYMBOL voltage 640 -240 R0
WINDOW 123 0 0 Left 0
WINDOW 39 0 0 Left 0
SYMATTR InstName V2
SYMATTR Value 200
SYMBOL res 240 304 R0
WINDOW 0 -34 30 Left 2
SYMATTR InstName R2
SYMATTR Value 8.2k
SYMBOL voltage 784 -240 R0
WINDOW 3 46 48 Left 2
WINDOW 123 0 0 Left 0
WINDOW 39 0 0 Left 0
SYMATTR Value 60
SYMATTR InstName V3
SYMBOL res -80 160 R90
WINDOW 0 0 56 VBottom 2
WINDOW 3 38 42 VTop 2
SYMATTR InstName R6
SYMATTR Value 100k
SYMBOL cap -112 80 R90
WINDOW 0 0 32 VBottom 2
WINDOW 3 32 32 VTop 2
SYMATTR InstName C2
SYMATTR Value 4700pF
SYMBOL res 128 464 R90
WINDOW 0 0 56 VBottom 2
WINDOW 3 38 42 VTop 2
SYMATTR InstName R5
SYMATTR Value 1k
SYMBOL res 400 -192 R0
SYMATTR InstName R7
SYMATTR Value 2.2k
SYMBOL res 64 160 R90
WINDOW 0 0 56 VBottom 2
WINDOW 3 38 42 VTop 2
SYMATTR InstName R1
SYMATTR Value 1k
SYMBOL res 960 256 R0
WINDOW 0 -22 2 Left 2
WINDOW 3 35 64 Left 2
SYMATTR InstName R9
SYMATTR Value 100k
SYMBOL cap 896 272 R0
SYMATTR InstName C4
SYMATTR Value 100pF
SYMBOL res 160 -192 R0
SYMATTR InstName R4
SYMATTR Value 2.2k
SYMBOL voltage 544 -240 R0
WINDOW 123 0 0 Left 0
WINDOW 39 0 0 Left 0
SYMATTR InstName V4
SYMATTR Value 200
SYMBOL Misc\\pentode1 176 160 R0
SYMATTR InstName U3
SYMATTR Value 6J4
SYMBOL Misc\\pentode1 416 160 R0
SYMATTR InstName U4
SYMATTR Value 6J4
SYMBOL ind 400 -336 R0
SYMATTR InstName L2
SYMATTR Value 10µH
SYMBOL res 256 64 R0
SYMATTR InstName R10
SYMATTR Value 100
SYMBOL res 512 64 R0
SYMATTR InstName R11
SYMATTR Value 100
SYMBOL cap 256 160 R0
SYMATTR InstName C5
SYMATTR Value 1µF
SYMBOL cap 512 160 R0
SYMATTR InstName C6
SYMATTR Value 1µF
SYMBOL res 800 0 R0
SYMATTR InstName R12
SYMATTR Value 330k
SYMBOL res 800 256 R0
SYMATTR InstName R8
SYMATTR Value 82k
SYMBOL res 1664 272 R0
WINDOW 0 -34 30 Left 2
SYMATTR InstName R13
SYMATTR Value 10k
SYMBOL res 1968 224 R0
WINDOW 0 -22 2 Left 2
WINDOW 3 35 64 Left 2
SYMATTR InstName R14
SYMATTR Value 100k
SYMBOL res 1344 128 R90
WINDOW 0 0 56 VBottom 2
WINDOW 3 38 42 VTop 2
SYMATTR InstName R15
SYMATTR Value 100k
SYMBOL cap 1312 48 R90
WINDOW 0 0 32 VBottom 2
WINDOW 3 32 32 VTop 2
SYMATTR InstName C3
SYMATTR Value 4700pF
SYMBOL res 1552 432 R90
WINDOW 0 0 56 VBottom 2
WINDOW 3 38 42 VTop 2
SYMATTR InstName R16
SYMATTR Value 1k
SYMBOL cap 1904 240 R0
SYMATTR InstName C7
SYMATTR Value 100pF
SYMBOL res 1824 -224 R0
SYMATTR InstName R17
SYMATTR Value 2.2k
SYMBOL res 1488 128 R90
WINDOW 0 0 56 VBottom 2
WINDOW 3 38 42 VTop 2
SYMATTR InstName R18
SYMATTR Value 1k
SYMBOL res 2384 224 R0
WINDOW 0 -22 2 Left 2
WINDOW 3 35 64 Left 2
SYMATTR InstName R19
SYMATTR Value 100k
SYMBOL cap 2320 240 R0
SYMATTR InstName C8
SYMATTR Value 100pF
SYMBOL res 1584 -224 R0
SYMATTR InstName R20
SYMATTR Value 2.2k
SYMBOL Misc\\pentode1 1600 128 R0
SYMATTR InstName U1
SYMATTR Value 6J4
SYMBOL Misc\\pentode1 1840 128 R0
SYMATTR InstName U2
SYMATTR Value 6J4
SYMBOL ind 1584 -368 R0
SYMATTR InstName L3
SYMATTR Value 10µH
SYMBOL ind 1824 -368 R0
SYMATTR InstName L4
SYMATTR Value 10µH
SYMBOL res 1680 32 R0
SYMATTR InstName R21
SYMATTR Value 100
SYMBOL res 1936 32 R0
SYMATTR InstName R22
SYMATTR Value 100
SYMBOL cap 1680 128 R0
SYMATTR InstName C9
SYMATTR Value 1µF
SYMBOL cap 1936 128 R0
SYMATTR InstName C10
SYMATTR Value 1µF
SYMBOL res 2224 -32 R0
SYMATTR InstName R23
SYMATTR Value 200k
SYMBOL res 2224 224 R0
SYMATTR InstName R24
SYMATTR Value 82k
TEXT 3760 -376 Left 2 !.SUBCKT 6J4  1 2 3 4 ; P G1 C G2 (Pentode) 15-Dec-2006\n+ PARAMS: MU= 47.56  EX= 1.358  KG1= 430  KP=177.6   KC=112\n+ KVB=  15.0  VCT=  0.00  RGI=1k\n+ CCG=9P  CPG1=0.015P CCP=5P\nRE1  7 0  1MEG    \nE1   7 0  VALUE=  ; E1 BREAKS UP LONG EQUATION FOR G1.\n+{V(4,3)/KP*LN(1+EXP((1/MU+V(2,3)/V(4,3))*KP))}\nG1   1 3  VALUE={(PWR(V(7),EX)+PWRS(V(7),EX))/KG1*ATAN(V(1,3)/KVB)}\nG2   4 3  VALUE={STP(((EXP(EX*(LN((V(4,3)/MU)+V(2,3)))))/KC)-((PWR(V(7),EX)+PWRS(V(7),EX))/KG1*ATAN(V(1,3)/KVB)))\n+*(((EXP(EX*(LN((V(4,3)/MU)+V(2,3)))))/KC)-((PWR(V(7),EX)+PWRS(V(7),EX))/KG1*ATAN(V(1,3)/KVB)))}\nRCP  1 3  1G      ; FOR CONVERGENCE\nC1   2 3  {CCG}   ; CATHODE-GRID 1\nC2   1 2  {CPG1}  ; GRID 1-PLATE\nC3   1 3  {CCP}   ; CATHODE-PLATE\nR1   2 5  {RGI}   ; FOR GRID CURRENT\nD3   5 3  DX      ; FOR GRID CURRENT\n.MODEL DX D(IS=1N RS=1 CJO=10PF TT=1N)\n.ENDS
TEXT -208 -152 Left 2 !.tran 0 220us 200us
